
This summary file was generated by TurbSim (from OpenFAST-v4.0.2) on 07-Apr-2025 at 10:00:10.


Runtime Options:

     13428  Random seed #1
    RANLUX  Type of random number generator
         F  Output binary HH turbulence parameters?
         F  Output formatted turbulence parameters?
         F  Output AeroDyn HH files?
         T  Output AeroDyn FF files?
         F  Output BLADED FF files?
         T  Output tower data?
         F  Output HAWC FF files?
         F  Output formatted FF files?
         F  Output coherent turbulence time step file?
 0 -  NONE  IEC turbulence models scaled to exact specified standard deviation


Turbine/Model Specifications:

        31  Vertical grid-point matrix dimension
        31  Horizontal grid-point matrix dimension
     0.050  Time step [seconds]
   630.000  Analysis time [seconds]
   630.000  Usable output time [seconds]
    90.000  Hub height [m]
   145.000  Grid height [m]
   145.000  Grid width [m]
     0.000  Vertical flow angle [degrees]
     0.000  Horizontal flow angle [degrees]


Meteorological Boundary Conditions:

    IECKAI  IEC Kaimal spectral model
         1  IEC standard: IEC 61400-1 Ed. 3: 2005
         A  IEC turbulence characteristic
       NTM  IEC Normal Turbulence Model
       N/A  IEC Extreme Turbulence Model (ETM) "c" parameter [m/s]
       PL   Wind profile type
    90.000  Reference height [m]
     5.000  Reference wind speed [m/s]
       N/A  Jet height [m]
     0.200  Power law exponent
     0.030  Surface roughness length [m]


Non-IEC Meteorological Boundary Conditions:

       N/A  Site latitude [degrees]
       N/A  Gradient Richardson number
       N/A  Friction or shear velocity [m/s]
       N/A  Mixing layer depth [m]
       N/A  Mean hub u'w' Reynolds stress
       N/A  Mean hub u'v' Reynolds stress
       N/A  Mean hub v'w' Reynolds stress


Spatial Coherence Models:

       IEC  u-component coherence model
      NONE  v-component coherence model
      NONE  w-component coherence model
(   12.000, 0.353E-03)  u-component coherence parameters
                   N/A  v-component coherence parameters
                   N/A  w-component coherence parameters
       N/A  Coherence exponent


You have requested that the following file(s) be generated:

   E:\software\OpenFast\openfast-main\reg_tests\r-test\r-test-main\glue-codes\openfast\5MW_Baseline\Wind\90m_15mps_twr.bts (AeroDyn/TurbSim full-field wind file)


Turbulence Simulation Scaling Parameter Summary:

   Turbulence model used                            =  IEC Kaimal
   Turbulence characteristic                        =  A
   IEC turbulence type                              =  Normal Turbulence Model
   IEC standard                                     =  IEC 61400-1 Ed. 3: 2005
   Mean wind speed at hub height                    =    5.000 m/s
   Expected value of turbulence intensity at 15 m/s =   16.000%
   Characteristic value of standard deviation       =    1.496 m/s
   Turbulence scale                                 =   42.000 m
   u-component integral scale                       =  340.200 m
   Coherency scale                                  =  340.200 m
   Characteristic value of hub turbulence intensity =   29.920%
   Gradient Richardson number                       =    0.000

   Wind profile type                                =  Power law
   Power law exponent                               =    0.200
   Mean shear across rotor disk                     =    0.014 (m/s)/m
   Assumed rotor diameter                           =  145.000 m
   Surface roughness length                         =    0.030 m

   Nyquist frequency of turbulent wind field        =   10.000 Hz

   Number of time steps in the FFT                  =    12600
   Number of time steps output                      =    12600
   Number of points simulated                       =      964


Mean Flow Angles:

   Vertical   =   0.0 degrees
   Horizontal =   0.0 degrees

Mean Wind Speed Profile:

   Height    Wind Speed   Horizontal Angle  Vertical Angle  U-comp (X)   V-comp (Y)   W-comp (Z)
     (m)        (m/s)         (degrees)       (degrees)       (m/s)        (m/s)        (m/s)   
   ------    ----------   ----------------  --------------  ----------   ----------   ----------
    162.5        5.63            0.00            0.00          5.63         0.00         0.00
    157.7        5.59            0.00            0.00          5.59         0.00         0.00
    152.8        5.56            0.00            0.00          5.56         0.00         0.00
    148.0        5.52            0.00            0.00          5.52         0.00         0.00
    143.2        5.49            0.00            0.00          5.49         0.00         0.00
    138.3        5.45            0.00            0.00          5.45         0.00         0.00
    133.5        5.41            0.00            0.00          5.41         0.00         0.00
    128.7        5.37            0.00            0.00          5.37         0.00         0.00
    123.8        5.33            0.00            0.00          5.33         0.00         0.00
    119.0        5.29            0.00            0.00          5.29         0.00         0.00
    114.2        5.24            0.00            0.00          5.24         0.00         0.00
    109.3        5.20            0.00            0.00          5.20         0.00         0.00
    104.5        5.15            0.00            0.00          5.15         0.00         0.00
     99.7        5.10            0.00            0.00          5.10         0.00         0.00
     94.8        5.05            0.00            0.00          5.05         0.00         0.00
     90.0        5.00            0.00            0.00          5.00         0.00         0.00
     85.2        4.95            0.00            0.00          4.95         0.00         0.00
     80.3        4.89            0.00            0.00          4.89         0.00         0.00
     75.5        4.83            0.00            0.00          4.83         0.00         0.00
     70.7        4.76            0.00            0.00          4.76         0.00         0.00
     65.8        4.70            0.00            0.00          4.70         0.00         0.00
     61.0        4.63            0.00            0.00          4.63         0.00         0.00
     56.2        4.55            0.00            0.00          4.55         0.00         0.00
     51.3        4.47            0.00            0.00          4.47         0.00         0.00
     46.5        4.38            0.00            0.00          4.38         0.00         0.00
     41.7        4.29            0.00            0.00          4.29         0.00         0.00
     36.8        4.18            0.00            0.00          4.18         0.00         0.00
     32.0        4.07            0.00            0.00          4.07         0.00         0.00
     27.2        3.93            0.00            0.00          3.93         0.00         0.00
     22.3        3.78            0.00            0.00          3.78         0.00         0.00
     17.5        3.60            0.00            0.00          3.60         0.00         0.00
     12.7        3.38            0.00            0.00          3.38         0.00         0.00
      7.8        3.07            0.00            0.00          3.07         0.00         0.00
      3.0        2.53            0.00            0.00          2.53         0.00         0.00


Harvested Random Seeds after Generation of the Random Numbers:

    169290450 K 1
            0 K 2


Hub-Height Simulated Turbulence Statistical Summary:

   Type of Wind        Min (m/s)   Mean (m/s)    Max (m/s)  Sigma (m/s)       TI (%)
   ----------------    ---------   ----------    ---------  -----------       ------
   Longitudinal (u)         1.75         5.00         8.67        1.091       21.814
   Lateral (v)             -4.02        -0.00         3.80        1.151       23.010
   Vertical (w)            -2.40         0.00         2.39        0.734       14.672
   U component              1.75         5.00         8.67        1.091       21.814
   V component             -4.02        -0.00         3.80        1.151       23.010
   W component             -2.40         0.00         2.39        0.734       14.672
   Horizontal (U&V)         1.78         5.14         8.72        1.062       20.677
   Total                    1.79         5.19         8.74        1.059       20.401

                       Min Reynolds     Mean Reynolds    Max Reynolds    Correlation
   Product             Stress (m/s)^2   Stress (m/s)^2   Stress (m/s)^2  Coefficient
   ----------------    --------------   --------------   --------------  -----------
   u'w'                     -5.116             0.132             5.201         0.164
   u'v'                     -5.319             0.460             9.956         0.367
   v'w'                     -3.849             0.207             8.083         0.246


   Friction Velocity (Ustar)  =      0.363 m/s
   Maximum Instantaneous TKE  =     11.249 (m/s)^2
   Maximum Instantaneous CTKE =      5.370 (m/s)^2


Grid Point Variance Summary:

   Y-coord  -72.50  -67.67  -62.83  -58.00  -53.17  -48.33  -43.50  -38.67  -33.83  -29.00  -24.17  -19.33  -14.50   -9.67   -4.83    0.00    4.83    9.67   14.50   19.33   24.17   29.00   33.83   38.67   43.50   48.33   53.17   58.00   62.83   67.67   72.50

   Height   Standard deviation at grid points for the u component:
   162.50    1.328   1.316   1.307   1.165   1.200   1.291   1.200   1.218   1.262   1.223   1.228   1.233   1.186   1.085   1.211   1.214   1.236   1.143   1.159   1.175   1.228   1.208   1.257   1.352   1.259   1.364   1.322   1.370   1.308   1.405   1.536
   157.67    1.331   1.297   1.232   1.163   1.180   1.131   1.217   1.147   1.234   1.126   1.129   1.108   1.123   1.184   1.166   1.178   1.146   1.136   1.133   1.144   1.182   1.140   1.208   1.243   1.293   1.415   1.433   1.286   1.328   1.412   1.501
   152.83    1.347   1.247   1.316   1.206   1.220   1.102   1.136   1.263   1.197   1.093   1.190   1.073   1.072   1.189   1.121   1.059   1.125   1.086   1.065   1.141   1.179   1.310   1.357   1.355   1.372   1.439   1.361   1.439   1.361   1.506   1.573
   148.00    1.447   1.348   1.382   1.360   1.173   1.163   1.134   1.064   1.202   1.248   1.121   1.189   1.202   1.194   1.230   1.163   1.107   1.000   1.071   1.195   1.137   1.336   1.297   1.266   1.335   1.379   1.393   1.387   1.562   1.481   1.516
   143.17    1.313   1.412   1.408   1.270   1.228   1.316   1.233   1.188   1.164   1.209   1.254   1.198   1.242   1.331   1.112   1.140   1.040   1.074   1.087   1.217   1.235   1.270   1.246   1.277   1.310   1.410   1.254   1.294   1.426   1.536   1.469
   138.33    1.304   1.341   1.423   1.240   1.269   1.241   1.328   1.259   1.303   1.287   1.362   1.343   1.295   1.301   1.209   1.210   1.105   1.144   1.191   1.199   1.173   1.285   1.299   1.215   1.220   1.325   1.241   1.287   1.371   1.407   1.449
   133.50    1.302   1.388   1.414   1.269   1.262   1.399   1.280   1.301   1.338   1.403   1.352   1.434   1.262   1.241   1.208   1.191   1.101   1.209   1.155   1.097   1.111   1.190   1.303   1.296   1.260   1.371   1.275   1.335   1.361   1.345   1.278
   128.67    1.369   1.384   1.299   1.273   1.308   1.351   1.435   1.314   1.342   1.335   1.371   1.391   1.266   1.282   1.295   1.211   1.180   1.179   1.189   1.087   1.091   1.182   1.280   1.295   1.388   1.351   1.257   1.267   1.325   1.306   1.291
   123.83    1.320   1.213   1.346   1.327   1.415   1.462   1.441   1.474   1.332   1.327   1.394   1.423   1.309   1.252   1.276   1.224   1.219   1.222   1.232   1.183   1.149   1.132   1.151   1.279   1.350   1.327   1.319   1.258   1.171   1.235   1.284
   119.00    1.200   1.258   1.291   1.293   1.337   1.316   1.324   1.381   1.315   1.343   1.357   1.379   1.277   1.282   1.264   1.338   1.177   1.195   1.116   1.191   1.078   1.129   1.055   1.188   1.266   1.330   1.288   1.285   1.288   1.270   1.240
   114.17    1.333   1.216   1.254   1.207   1.235   1.249   1.266   1.330   1.402   1.298   1.305   1.247   1.327   1.313   1.332   1.189   1.168   1.109   1.051   1.119   1.153   1.210   1.177   1.127   1.222   1.129   1.211   1.312   1.243   1.190   1.158
   109.33    1.373   1.265   1.206   1.170   1.128   1.207   1.264   1.383   1.331   1.247   1.227   1.153   1.185   1.266   1.156   1.218   1.146   1.112   1.179   1.112   1.083   1.151   1.118   1.130   1.085   1.173   1.193   1.292   1.211   1.181   1.158
   104.50    1.349   1.374   1.372   1.245   1.231   1.218   1.336   1.405   1.403   1.352   1.207   1.210   1.101   1.170   1.132   1.161   1.082   1.182   1.118   1.124   1.134   1.201   1.203   1.193   1.227   1.122   1.204   1.219   1.263   1.298   1.191
    99.67    1.389   1.339   1.274   1.283   1.218   1.294   1.360   1.339   1.346   1.306   1.263   1.179   1.242   1.246   1.219   1.110   1.092   1.087   1.074   1.054   1.141   1.140   1.243   1.218   1.240   1.189   1.212   1.103   1.203   1.126   1.071
    94.83    1.305   1.318   1.145   1.184   1.243   1.360   1.313   1.244   1.275   1.230   1.230   1.169   1.208   1.168   1.193   1.069   1.056   1.071   1.199   1.243   1.249   1.179   1.222   1.324   1.149   1.106   1.150   1.094   1.128   1.087   1.058
    90.00    1.464   1.338   1.265   1.346   1.454   1.315   1.312   1.305   1.216   1.236   1.246   1.284   1.256   1.173   1.123   1.091   1.095   1.185   1.219   1.177   1.212   1.287   1.243   1.311   1.183   1.097   1.073   0.996   1.080   1.012   1.054
    85.17    1.361   1.417   1.428   1.395   1.462   1.383   1.370   1.230   1.237   1.320   1.295   1.328   1.298   1.268   1.120   1.151   1.146   1.217   1.263   1.313   1.248   1.316   1.299   1.262   1.308   1.052   1.011   0.990   1.018   1.058   1.091
    80.33    1.305   1.334   1.283   1.345   1.453   1.335   1.311   1.298   1.218   1.294   1.294   1.212   1.325   1.315   1.273   1.171   1.234   1.318   1.233   1.336   1.274   1.323   1.242   1.194   1.142   1.091   1.024   0.963   1.037   1.073   1.087
    75.50    1.378   1.339   1.248   1.293   1.413   1.346   1.191   1.189   1.063   1.207   1.287   1.288   1.348   1.327   1.374   1.365   1.237   1.299   1.267   1.337   1.227   1.295   1.291   1.249   1.231   1.238   1.114   1.006   1.039   1.097   1.113
    70.67    1.449   1.425   1.369   1.368   1.404   1.360   1.253   1.194   1.067   1.143   1.302   1.408   1.415   1.327   1.319   1.309   1.286   1.363   1.323   1.328   1.275   1.345   1.367   1.285   1.336   1.347   1.229   1.176   1.033   1.108   1.083
    65.83    1.475   1.417   1.424   1.419   1.455   1.350   1.338   1.127   1.169   1.262   1.343   1.384   1.367   1.369   1.250   1.306   1.229   1.184   1.326   1.265   1.338   1.411   1.340   1.320   1.322   1.328   1.115   1.094   1.023   1.088   1.143
    61.00    1.499   1.476   1.419   1.415   1.402   1.441   1.242   1.252   1.224   1.256   1.175   1.317   1.368   1.344   1.279   1.256   1.281   1.214   1.235   1.246   1.254   1.354   1.197   1.226   1.275   1.173   1.165   1.124   1.130   1.083   1.058
    56.17    1.444   1.548   1.503   1.519   1.390   1.376   1.308   1.212   1.254   1.280   1.165   1.279   1.317   1.346   1.302   1.258   1.232   1.268   1.278   1.221   1.191   1.241   1.253   1.179   1.227   1.323   1.272   1.185   1.142   1.140   1.133
    51.33    1.348   1.500   1.475   1.455   1.408   1.351   1.351   1.329   1.270   1.263   1.140   1.349   1.398   1.297   1.287   1.174   1.281   1.204   1.228   1.228   1.271   1.148   1.262   1.247   1.347   1.384   1.329   1.157   1.266   1.200   1.128
    46.50    1.432   1.433   1.463   1.514   1.409   1.340   1.368   1.310   1.325   1.323   1.253   1.320   1.448   1.359   1.237   1.220   1.193   1.190   1.178   1.192   1.132   1.243   1.253   1.289   1.322   1.332   1.287   1.263   1.282   1.203   1.114
    41.67    1.340   1.414   1.555   1.562   1.551   1.425   1.316   1.242   1.342   1.324   1.339   1.395   1.452   1.384   1.269   1.210   1.113   1.150   1.165   1.110   1.212   1.172   1.162   1.255   1.245   1.311   1.237   1.278   1.294   1.205   1.105
    36.83    1.266   1.462   1.473   1.541   1.400   1.375   1.349   1.296   1.311   1.368   1.312   1.374   1.365   1.291   1.329   1.210   1.160   1.151   1.097   1.097   1.228   1.194   1.251   1.161   1.314   1.200   1.235   1.199   1.171   1.208   1.182
    32.00    1.355   1.331   1.464   1.452   1.446   1.487   1.342   1.307   1.368   1.314   1.283   1.434   1.392   1.414   1.345   1.320   1.218   1.159   1.143   1.086   1.125   1.176   1.215   1.138   1.226   1.192   1.240   1.180   1.143   1.092   1.191
    27.17    1.293   1.348   1.485   1.462   1.478   1.505   1.415   1.363   1.318   1.468   1.441   1.440   1.440   1.415   1.281   1.238   1.251   1.109   1.036   1.114   1.113   1.177   1.202   1.140   1.132   1.262   1.184   1.204   1.173   1.156   1.086
    22.33    1.315   1.268   1.394   1.431   1.506   1.491   1.468   1.448   1.394   1.464   1.407   1.424   1.532   1.463   1.361   1.237   1.245   1.217   1.177   1.145   1.072   1.113   1.156   1.225   1.167   1.164   1.275   1.169   1.126   1.232   1.212
    17.50    1.352   1.342   1.393   1.385   1.444   1.438   1.400   1.374   1.253   1.327   1.379   1.501   1.514   1.454   1.460   1.347   1.363   1.324   1.277   1.113   1.118   1.096   1.147   1.248   1.247   1.197   1.257   1.145   1.162   1.146   1.311

   Height   Standard deviation at grid points for the v component:
   162.50    1.151   1.151   1.151   1.151   1.151   1.151   1.151   1.151   1.151   1.151   1.151   1.151   1.151   1.151   1.151   1.151   1.151   1.151   1.151   1.151   1.151   1.151   1.151   1.151   1.151   1.151   1.151   1.151   1.151   1.151   1.151
   157.67    1.151   1.151   1.151   1.151   1.151   1.151   1.151   1.151   1.151   1.151   1.151   1.151   1.151   1.151   1.151   1.151   1.151   1.151   1.151   1.151   1.151   1.151   1.151   1.151   1.151   1.151   1.151   1.151   1.151   1.151   1.151
   152.83    1.151   1.151   1.151   1.151   1.151   1.151   1.151   1.151   1.151   1.151   1.151   1.151   1.151   1.151   1.151   1.151   1.151   1.151   1.151   1.151   1.151   1.151   1.151   1.151   1.151   1.151   1.151   1.151   1.151   1.151   1.151
   148.00    1.151   1.151   1.151   1.151   1.151   1.151   1.151   1.151   1.151   1.151   1.151   1.151   1.151   1.151   1.151   1.151   1.151   1.151   1.151   1.151   1.151   1.151   1.151   1.151   1.151   1.151   1.151   1.151   1.151   1.151   1.151
   143.17    1.151   1.151   1.151   1.151   1.151   1.151   1.151   1.151   1.151   1.151   1.151   1.151   1.151   1.151   1.151   1.151   1.151   1.151   1.151   1.151   1.151   1.151   1.151   1.151   1.151   1.151   1.151   1.151   1.151   1.151   1.151
   138.33    1.151   1.151   1.151   1.151   1.151   1.151   1.151   1.151   1.151   1.151   1.151   1.151   1.151   1.151   1.151   1.151   1.151   1.151   1.151   1.151   1.151   1.151   1.151   1.151   1.151   1.151   1.151   1.151   1.151   1.151   1.151
   133.50    1.151   1.151   1.151   1.151   1.151   1.151   1.151   1.151   1.151   1.151   1.151   1.151   1.151   1.151   1.151   1.151   1.151   1.151   1.151   1.151   1.151   1.151   1.151   1.151   1.151   1.151   1.151   1.151   1.151   1.151   1.151
   128.67    1.151   1.151   1.151   1.151   1.151   1.151   1.151   1.151   1.151   1.151   1.151   1.151   1.151   1.151   1.151   1.151   1.151   1.151   1.151   1.151   1.151   1.151   1.151   1.151   1.151   1.151   1.151   1.151   1.151   1.151   1.151
   123.83    1.151   1.151   1.151   1.151   1.151   1.151   1.151   1.151   1.151   1.151   1.151   1.151   1.151   1.151   1.151   1.151   1.151   1.151   1.151   1.151   1.151   1.151   1.151   1.151   1.151   1.151   1.151   1.151   1.151   1.151   1.151
   119.00    1.151   1.151   1.151   1.151   1.151   1.151   1.151   1.151   1.151   1.151   1.151   1.151   1.151   1.151   1.151   1.151   1.151   1.151   1.151   1.151   1.151   1.151   1.151   1.151   1.151   1.151   1.151   1.151   1.151   1.151   1.151
   114.17    1.151   1.151   1.151   1.151   1.151   1.151   1.151   1.151   1.151   1.151   1.151   1.151   1.151   1.151   1.151   1.151   1.151   1.151   1.151   1.151   1.151   1.151   1.151   1.151   1.151   1.151   1.151   1.151   1.151   1.151   1.151
   109.33    1.151   1.151   1.151   1.151   1.151   1.151   1.151   1.151   1.151   1.151   1.151   1.151   1.151   1.151   1.151   1.151   1.151   1.151   1.151   1.151   1.151   1.151   1.151   1.151   1.151   1.151   1.151   1.151   1.151   1.151   1.151
   104.50    1.151   1.151   1.151   1.151   1.151   1.151   1.151   1.151   1.151   1.151   1.151   1.151   1.151   1.151   1.151   1.151   1.151   1.151   1.151   1.151   1.151   1.151   1.151   1.151   1.151   1.151   1.151   1.151   1.151   1.151   1.151
    99.67    1.151   1.151   1.151   1.151   1.151   1.151   1.151   1.151   1.151   1.151   1.151   1.151   1.151   1.151   1.151   1.151   1.151   1.151   1.151   1.151   1.151   1.151   1.151   1.151   1.151   1.151   1.151   1.151   1.151   1.151   1.151
    94.83    1.151   1.151   1.151   1.151   1.151   1.151   1.151   1.151   1.151   1.151   1.151   1.151   1.151   1.151   1.151   1.151   1.151   1.151   1.151   1.151   1.151   1.151   1.151   1.151   1.151   1.151   1.151   1.151   1.151   1.151   1.151
    90.00    1.151   1.151   1.151   1.151   1.151   1.151   1.151   1.151   1.151   1.151   1.151   1.151   1.151   1.151   1.151   1.151   1.151   1.151   1.151   1.151   1.151   1.151   1.151   1.151   1.151   1.151   1.151   1.151   1.151   1.151   1.151
    85.17    1.151   1.151   1.151   1.151   1.151   1.151   1.151   1.151   1.151   1.151   1.151   1.151   1.151   1.151   1.151   1.151   1.151   1.151   1.151   1.151   1.151   1.151   1.151   1.151   1.151   1.151   1.151   1.151   1.151   1.151   1.151
    80.33    1.151   1.151   1.151   1.151   1.151   1.151   1.151   1.151   1.151   1.151   1.151   1.151   1.151   1.151   1.151   1.151   1.151   1.151   1.151   1.151   1.151   1.151   1.151   1.151   1.151   1.151   1.151   1.151   1.151   1.151   1.151
    75.50    1.151   1.151   1.151   1.151   1.151   1.151   1.151   1.151   1.151   1.151   1.151   1.151   1.151   1.151   1.151   1.151   1.151   1.151   1.151   1.151   1.151   1.151   1.151   1.151   1.151   1.151   1.151   1.151   1.151   1.151   1.151
    70.67    1.151   1.151   1.151   1.151   1.151   1.151   1.151   1.151   1.151   1.151   1.151   1.151   1.151   1.151   1.151   1.151   1.151   1.151   1.151   1.151   1.151   1.151   1.151   1.151   1.151   1.151   1.151   1.151   1.151   1.151   1.151
    65.83    1.151   1.151   1.151   1.151   1.151   1.151   1.151   1.151   1.151   1.151   1.151   1.151   1.151   1.151   1.151   1.151   1.151   1.151   1.151   1.151   1.151   1.151   1.151   1.151   1.151   1.151   1.151   1.151   1.151   1.151   1.151
    61.00    1.151   1.151   1.151   1.151   1.151   1.151   1.151   1.151   1.151   1.151   1.151   1.151   1.151   1.151   1.151   1.151   1.151   1.151   1.151   1.151   1.151   1.151   1.151   1.151   1.151   1.151   1.151   1.151   1.151   1.151   1.151
    56.17    1.151   1.151   1.151   1.151   1.151   1.151   1.151   1.151   1.151   1.151   1.151   1.151   1.151   1.151   1.151   1.151   1.151   1.151   1.151   1.151   1.151   1.151   1.151   1.151   1.151   1.151   1.151   1.151   1.151   1.151   1.151
    51.33    1.151   1.151   1.151   1.151   1.151   1.151   1.151   1.151   1.151   1.151   1.151   1.151   1.151   1.151   1.151   1.151   1.151   1.151   1.151   1.151   1.151   1.151   1.151   1.151   1.151   1.151   1.151   1.151   1.151   1.151   1.151
    46.50    1.151   1.151   1.151   1.151   1.151   1.151   1.151   1.151   1.151   1.151   1.151   1.151   1.151   1.151   1.151   1.151   1.151   1.151   1.151   1.151   1.151   1.151   1.151   1.151   1.151   1.151   1.151   1.151   1.151   1.151   1.151
    41.67    1.151   1.151   1.151   1.151   1.151   1.151   1.151   1.151   1.151   1.151   1.151   1.151   1.151   1.151   1.151   1.151   1.151   1.151   1.151   1.151   1.151   1.151   1.151   1.151   1.151   1.151   1.151   1.151   1.151   1.151   1.151
    36.83    1.151   1.151   1.151   1.151   1.151   1.151   1.151   1.151   1.151   1.151   1.151   1.151   1.151   1.151   1.151   1.151   1.151   1.151   1.151   1.151   1.151   1.151   1.151   1.151   1.151   1.151   1.151   1.151   1.151   1.151   1.151
    32.00    1.151   1.151   1.151   1.151   1.151   1.151   1.151   1.151   1.151   1.151   1.151   1.151   1.151   1.151   1.151   1.151   1.151   1.151   1.151   1.151   1.151   1.151   1.151   1.151   1.151   1.151   1.151   1.151   1.151   1.151   1.151
    27.17    1.151   1.151   1.151   1.151   1.151   1.151   1.151   1.151   1.151   1.151   1.151   1.151   1.151   1.151   1.151   1.151   1.151   1.151   1.151   1.151   1.151   1.151   1.151   1.151   1.151   1.151   1.151   1.151   1.151   1.151   1.151
    22.33    1.151   1.151   1.151   1.151   1.151   1.151   1.151   1.151   1.151   1.151   1.151   1.151   1.151   1.151   1.151   1.151   1.151   1.151   1.151   1.151   1.151   1.151   1.151   1.151   1.151   1.151   1.151   1.151   1.151   1.151   1.151
    17.50    1.151   1.151   1.151   1.151   1.151   1.151   1.151   1.151   1.151   1.151   1.151   1.151   1.151   1.151   1.151   1.151   1.151   1.151   1.151   1.151   1.151   1.151   1.151   1.151   1.151   1.151   1.151   1.151   1.151   1.151   1.151

   Height   Standard deviation at grid points for the w component:
   162.50    0.734   0.734   0.734   0.734   0.734   0.734   0.734   0.734   0.734   0.734   0.734   0.734   0.734   0.734   0.734   0.734   0.734   0.734   0.734   0.734   0.734   0.734   0.734   0.734   0.734   0.734   0.734   0.734   0.734   0.734   0.734
   157.67    0.734   0.734   0.734   0.734   0.734   0.734   0.734   0.734   0.734   0.734   0.734   0.734   0.734   0.734   0.734   0.734   0.734   0.734   0.734   0.734   0.734   0.734   0.734   0.734   0.734   0.734   0.734   0.734   0.734   0.734   0.734
   152.83    0.734   0.734   0.734   0.734   0.734   0.734   0.734   0.734   0.734   0.734   0.734   0.734   0.734   0.734   0.734   0.734   0.734   0.734   0.734   0.734   0.734   0.734   0.734   0.734   0.734   0.734   0.734   0.734   0.734   0.734   0.734
   148.00    0.734   0.734   0.734   0.734   0.734   0.734   0.734   0.734   0.734   0.734   0.734   0.734   0.734   0.734   0.734   0.734   0.734   0.734   0.734   0.734   0.734   0.734   0.734   0.734   0.734   0.734   0.734   0.734   0.734   0.734   0.734
   143.17    0.734   0.734   0.734   0.734   0.734   0.734   0.734   0.734   0.734   0.734   0.734   0.734   0.734   0.734   0.734   0.734   0.734   0.734   0.734   0.734   0.734   0.734   0.734   0.734   0.734   0.734   0.734   0.734   0.734   0.734   0.734
   138.33    0.734   0.734   0.734   0.734   0.734   0.734   0.734   0.734   0.734   0.734   0.734   0.734   0.734   0.734   0.734   0.734   0.734   0.734   0.734   0.734   0.734   0.734   0.734   0.734   0.734   0.734   0.734   0.734   0.734   0.734   0.734
   133.50    0.734   0.734   0.734   0.734   0.734   0.734   0.734   0.734   0.734   0.734   0.734   0.734   0.734   0.734   0.734   0.734   0.734   0.734   0.734   0.734   0.734   0.734   0.734   0.734   0.734   0.734   0.734   0.734   0.734   0.734   0.734
   128.67    0.734   0.734   0.734   0.734   0.734   0.734   0.734   0.734   0.734   0.734   0.734   0.734   0.734   0.734   0.734   0.734   0.734   0.734   0.734   0.734   0.734   0.734   0.734   0.734   0.734   0.734   0.734   0.734   0.734   0.734   0.734
   123.83    0.734   0.734   0.734   0.734   0.734   0.734   0.734   0.734   0.734   0.734   0.734   0.734   0.734   0.734   0.734   0.734   0.734   0.734   0.734   0.734   0.734   0.734   0.734   0.734   0.734   0.734   0.734   0.734   0.734   0.734   0.734
   119.00    0.734   0.734   0.734   0.734   0.734   0.734   0.734   0.734   0.734   0.734   0.734   0.734   0.734   0.734   0.734   0.734   0.734   0.734   0.734   0.734   0.734   0.734   0.734   0.734   0.734   0.734   0.734   0.734   0.734   0.734   0.734
   114.17    0.734   0.734   0.734   0.734   0.734   0.734   0.734   0.734   0.734   0.734   0.734   0.734   0.734   0.734   0.734   0.734   0.734   0.734   0.734   0.734   0.734   0.734   0.734   0.734   0.734   0.734   0.734   0.734   0.734   0.734   0.734
   109.33    0.734   0.734   0.734   0.734   0.734   0.734   0.734   0.734   0.734   0.734   0.734   0.734   0.734   0.734   0.734   0.734   0.734   0.734   0.734   0.734   0.734   0.734   0.734   0.734   0.734   0.734   0.734   0.734   0.734   0.734   0.734
   104.50    0.734   0.734   0.734   0.734   0.734   0.734   0.734   0.734   0.734   0.734   0.734   0.734   0.734   0.734   0.734   0.734   0.734   0.734   0.734   0.734   0.734   0.734   0.734   0.734   0.734   0.734   0.734   0.734   0.734   0.734   0.734
    99.67    0.734   0.734   0.734   0.734   0.734   0.734   0.734   0.734   0.734   0.734   0.734   0.734   0.734   0.734   0.734   0.734   0.734   0.734   0.734   0.734   0.734   0.734   0.734   0.734   0.734   0.734   0.734   0.734   0.734   0.734   0.734
    94.83    0.734   0.734   0.734   0.734   0.734   0.734   0.734   0.734   0.734   0.734   0.734   0.734   0.734   0.734   0.734   0.734   0.734   0.734   0.734   0.734   0.734   0.734   0.734   0.734   0.734   0.734   0.734   0.734   0.734   0.734   0.734
    90.00    0.734   0.734   0.734   0.734   0.734   0.734   0.734   0.734   0.734   0.734   0.734   0.734   0.734   0.734   0.734   0.734   0.734   0.734   0.734   0.734   0.734   0.734   0.734   0.734   0.734   0.734   0.734   0.734   0.734   0.734   0.734
    85.17    0.734   0.734   0.734   0.734   0.734   0.734   0.734   0.734   0.734   0.734   0.734   0.734   0.734   0.734   0.734   0.734   0.734   0.734   0.734   0.734   0.734   0.734   0.734   0.734   0.734   0.734   0.734   0.734   0.734   0.734   0.734
    80.33    0.734   0.734   0.734   0.734   0.734   0.734   0.734   0.734   0.734   0.734   0.734   0.734   0.734   0.734   0.734   0.734   0.734   0.734   0.734   0.734   0.734   0.734   0.734   0.734   0.734   0.734   0.734   0.734   0.734   0.734   0.734
    75.50    0.734   0.734   0.734   0.734   0.734   0.734   0.734   0.734   0.734   0.734   0.734   0.734   0.734   0.734   0.734   0.734   0.734   0.734   0.734   0.734   0.734   0.734   0.734   0.734   0.734   0.734   0.734   0.734   0.734   0.734   0.734
    70.67    0.734   0.734   0.734   0.734   0.734   0.734   0.734   0.734   0.734   0.734   0.734   0.734   0.734   0.734   0.734   0.734   0.734   0.734   0.734   0.734   0.734   0.734   0.734   0.734   0.734   0.734   0.734   0.734   0.734   0.734   0.734
    65.83    0.734   0.734   0.734   0.734   0.734   0.734   0.734   0.734   0.734   0.734   0.734   0.734   0.734   0.734   0.734   0.734   0.734   0.734   0.734   0.734   0.734   0.734   0.734   0.734   0.734   0.734   0.734   0.734   0.734   0.734   0.734
    61.00    0.734   0.734   0.734   0.734   0.734   0.734   0.734   0.734   0.734   0.734   0.734   0.734   0.734   0.734   0.734   0.734   0.734   0.734   0.734   0.734   0.734   0.734   0.734   0.734   0.734   0.734   0.734   0.734   0.734   0.734   0.734
    56.17    0.734   0.734   0.734   0.734   0.734   0.734   0.734   0.734   0.734   0.734   0.734   0.734   0.734   0.734   0.734   0.734   0.734   0.734   0.734   0.734   0.734   0.734   0.734   0.734   0.734   0.734   0.734   0.734   0.734   0.734   0.734
    51.33    0.734   0.734   0.734   0.734   0.734   0.734   0.734   0.734   0.734   0.734   0.734   0.734   0.734   0.734   0.734   0.734   0.734   0.734   0.734   0.734   0.734   0.734   0.734   0.734   0.734   0.734   0.734   0.734   0.734   0.734   0.734
    46.50    0.734   0.734   0.734   0.734   0.734   0.734   0.734   0.734   0.734   0.734   0.734   0.734   0.734   0.734   0.734   0.734   0.734   0.734   0.734   0.734   0.734   0.734   0.734   0.734   0.734   0.734   0.734   0.734   0.734   0.734   0.734
    41.67    0.734   0.734   0.734   0.734   0.734   0.734   0.734   0.734   0.734   0.734   0.734   0.734   0.734   0.734   0.734   0.734   0.734   0.734   0.734   0.734   0.734   0.734   0.734   0.734   0.734   0.734   0.734   0.734   0.734   0.734   0.734
    36.83    0.734   0.734   0.734   0.734   0.734   0.734   0.734   0.734   0.734   0.734   0.734   0.734   0.734   0.734   0.734   0.734   0.734   0.734   0.734   0.734   0.734   0.734   0.734   0.734   0.734   0.734   0.734   0.734   0.734   0.734   0.734
    32.00    0.734   0.734   0.734   0.734   0.734   0.734   0.734   0.734   0.734   0.734   0.734   0.734   0.734   0.734   0.734   0.734   0.734   0.734   0.734   0.734   0.734   0.734   0.734   0.734   0.734   0.734   0.734   0.734   0.734   0.734   0.734
    27.17    0.734   0.734   0.734   0.734   0.734   0.734   0.734   0.734   0.734   0.734   0.734   0.734   0.734   0.734   0.734   0.734   0.734   0.734   0.734   0.734   0.734   0.734   0.734   0.734   0.734   0.734   0.734   0.734   0.734   0.734   0.734
    22.33    0.734   0.734   0.734   0.734   0.734   0.734   0.734   0.734   0.734   0.734   0.734   0.734   0.734   0.734   0.734   0.734   0.734   0.734   0.734   0.734   0.734   0.734   0.734   0.734   0.734   0.734   0.734   0.734   0.734   0.734   0.734
    17.50    0.734   0.734   0.734   0.734   0.734   0.734   0.734   0.734   0.734   0.734   0.734   0.734   0.734   0.734   0.734   0.734   0.734   0.734   0.734   0.734   0.734   0.734   0.734   0.734   0.734   0.734   0.734   0.734   0.734   0.734   0.734

   Mean standard deviation across all grid points:
      u component:    1.262 m/s
      v component:    1.151 m/s
      w component:    0.734 m/s


U-component (X) statistics from the interpolated hub point:

   Mean =   5.0000 m/s
   TI   =  21.8139 %


Processing complete.  45.188 CPU seconds used.
