
This summary information was generated by AeroDyn on 17-Mar-2022 at 22:07:55.

======  General Options  ============================================================================
            1  WakeMod        - Type of wake/induction model: Blade-Element/Momentum Theory
            1  TwrPotent      - Type of tower influence on wind based on potential flow around the tower: baseline potential flow
            0  TwrShadow      - Type of tower influence on wind based on downstream tower shadow: none
            T  TwrAero        - Tower aerodynamic loads: Tower aero calculated without VIV
            F  CavitCheck     - Perform cavitation check? No
            F  Buoyancy       - Include buoyancy effects? No
            F  NacelleDrag    - Include NacelleDrag effects? No
======  Blade-Element/Momentum Theory Options  ======================================================
            1  Skew_Mod       - Skewed-wake correction model: active
            T  TipLoss        - Use the Prandtl tip-loss model? Yes
            T  HubLoss        - Use the Prandtl hub-loss model? Yes
            T  TanInd         - Include tangential induction in BEMT calculations? Yes
            F  AIDrag         - Include the drag term in the axial-induction calculation? No
            F  TIDrag         - Include the drag term in the tangential-induction calculation? No
   5.0000E-05  IndToler       - Convergence tolerance for BEM induction factors (radians)
            0  DBEMT_Mod      - Type of dynamic BEMT (DBEMT) model: quasi-steady
======================== Unsteady Airfoil Aerodynamics Options  =====================================
            3  UA_Mod         - Unsteady Aero Model: Minnema/Pierce variant (changes in Cc and Cm)
            T  FLookup        - Use a lookup for f'? Yes
            3  IntegrationMet - Integration method for continuous UA models: fourth-order Adams-Bashforth-Moulton Method (ABM4)
      0.00000  UAStartRad     - Starting blade radius fraction for UA models (-)
      1.00000  UAEndRad       - Ending blade radius fraction for UA models (-)
======  Outputs  ====================================================================================
            0  NBlOuts        - Number of blade nodes selected for output
            0  NTwOuts        - Number of tower nodes selected for output

               Requested Output Channels:
                Col   Parameter            Units               
                ---   ---------------      ---------------     
                  0   Time                 (s)                 


               Requested Output Channels at each blade station:
                Col   Parameter            Units               
                ---   ---------------      ---------------     


Buoyancy parameters:

Hub volume (m^3):           0.000
Nacelle volume (m^3):       0.000
Total blade volume (m^3):   0.000
Tower volume (m^3):         0.000


======  Blade definitions  ==========================================================================

   -----  Blade  1 -----------------------------------------------------------------------------------------------------------
                BlSpn              BlCrvAC              BlSwpAC             BlCrvAng              BlTwist              BlChord
                  (m)                  (m)                  (m)                (deg)                (deg)                  (m)
             --------             --------              -------             --------             --------             --------
             0.000000             0.000000             0.000000               0.0000              13.3080             3.542000
             1.366700            -0.000815            -0.003447               0.0000              13.3080             3.542000
             4.100000            -0.024840            -0.105014               0.0000              13.3080             3.854000
             6.833300            -0.059469            -0.251416               0.0000              13.3080             4.167000
            10.250000            -0.109091            -0.461201               0.0000              13.3080             4.557000
            14.350000            -0.115734            -0.569867               0.0000              11.4800             4.652000
            18.450001            -0.098317            -0.548508               0.0000              10.1620             4.458000
            22.549999            -0.083187            -0.524570               0.0000               9.0110             4.249000
            26.650000            -0.067933            -0.496247               0.0000               7.7950             4.007000
            30.750000            -0.053393            -0.465448               0.0000               6.5440             3.748000
            34.849998            -0.040899            -0.435835               0.0000               5.3610             3.502000
            38.950001            -0.029723            -0.405913               0.0000               4.1880             3.256000
            43.049999            -0.020511            -0.375691               0.0000               3.1250             3.010000
            47.150002            -0.013980            -0.345217               0.0000               2.3190             2.764000
            51.250000            -0.008382            -0.314638               0.0000               1.5260             2.518000
            54.666698            -0.004355            -0.289092               0.0000               0.8630             2.313000
            57.400002            -0.001684            -0.260745               0.0000               0.3700             2.086000
            60.133301            -0.000328            -0.177375               0.0000               0.1060             1.419000
            61.499901            -0.000328            -0.177375               0.0000               0.1060             1.419000

   -----  Blade  2 -----------------------------------------------------------------------------------------------------------
                BlSpn              BlCrvAC              BlSwpAC             BlCrvAng              BlTwist              BlChord
                  (m)                  (m)                  (m)                (deg)                (deg)                  (m)
             --------             --------              -------             --------             --------             --------
             0.000000             0.000000             0.000000               0.0000              13.3080             3.542000
             1.366700            -0.000815            -0.003447               0.0000              13.3080             3.542000
             4.100000            -0.024840            -0.105014               0.0000              13.3080             3.854000
             6.833300            -0.059469            -0.251416               0.0000              13.3080             4.167000
            10.250000            -0.109091            -0.461201               0.0000              13.3080             4.557000
            14.350000            -0.115734            -0.569867               0.0000              11.4800             4.652000
            18.450001            -0.098317            -0.548508               0.0000              10.1620             4.458000
            22.549999            -0.083187            -0.524570               0.0000               9.0110             4.249000
            26.650000            -0.067933            -0.496247               0.0000               7.7950             4.007000
            30.750000            -0.053393            -0.465448               0.0000               6.5440             3.748000
            34.849998            -0.040899            -0.435835               0.0000               5.3610             3.502000
            38.950001            -0.029723            -0.405913               0.0000               4.1880             3.256000
            43.049999            -0.020511            -0.375691               0.0000               3.1250             3.010000
            47.150002            -0.013980            -0.345217               0.0000               2.3190             2.764000
            51.250000            -0.008382            -0.314638               0.0000               1.5260             2.518000
            54.666698            -0.004355            -0.289092               0.0000               0.8630             2.313000
            57.400002            -0.001684            -0.260745               0.0000               0.3700             2.086000
            60.133301            -0.000328            -0.177375               0.0000               0.1060             1.419000
            61.499901            -0.000328            -0.177375               0.0000               0.1060             1.419000

   -----  Blade  3 -----------------------------------------------------------------------------------------------------------
                BlSpn              BlCrvAC              BlSwpAC             BlCrvAng              BlTwist              BlChord
                  (m)                  (m)                  (m)                (deg)                (deg)                  (m)
             --------             --------              -------             --------             --------             --------
             0.000000             0.000000             0.000000               0.0000              13.3080             3.542000
             1.366700            -0.000815            -0.003447               0.0000              13.3080             3.542000
             4.100000            -0.024840            -0.105014               0.0000              13.3080             3.854000
             6.833300            -0.059469            -0.251416               0.0000              13.3080             4.167000
            10.250000            -0.109091            -0.461201               0.0000              13.3080             4.557000
            14.350000            -0.115734            -0.569867               0.0000              11.4800             4.652000
            18.450001            -0.098317            -0.548508               0.0000              10.1620             4.458000
            22.549999            -0.083187            -0.524570               0.0000               9.0110             4.249000
            26.650000            -0.067933            -0.496247               0.0000               7.7950             4.007000
            30.750000            -0.053393            -0.465448               0.0000               6.5440             3.748000
            34.849998            -0.040899            -0.435835               0.0000               5.3610             3.502000
            38.950001            -0.029723            -0.405913               0.0000               4.1880             3.256000
            43.049999            -0.020511            -0.375691               0.0000               3.1250             3.010000
            47.150002            -0.013980            -0.345217               0.0000               2.3190             2.764000
            51.250000            -0.008382            -0.314638               0.0000               1.5260             2.518000
            54.666698            -0.004355            -0.289092               0.0000               0.8630             2.313000
            57.400002            -0.001684            -0.260745               0.0000               0.3700             2.086000
            60.133301            -0.000328            -0.177375               0.0000               0.1060             1.419000
            61.499901            -0.000328            -0.177375               0.0000               0.1060             1.419000
